# Packages
 &PACKAGES
 useCAL         = .TRUE.,
 useEXF         = .TRUE.,
 useOBCS        = .TRUE.,
 useDIAGNOSTICS = .TRUE.,
 useGMREDI      = .TRUE.,
 useggl90       = .TRUE.,
 &
