# Example "eedata" file
# Lines beginning "#" are comments
# nTx - No. threads per process in X
# nTy - No. threads per process in Y
 &EEPARMS
 nTx=4,
 nTy=2,
 &
# Note: Some systems use & as the
# namelist terminator. Other systems
# use a / character (as shown here).
